outputs/clearing_lowv/divergence_fault_bus_16_xf_0_001_cleared_by_trip_16_21_lfbase_power/summary.txt
event: fault bus 16 xf=0.001 cleared by trip 16-21  LF = 1.0000  loads = (zip = (0.7, 0.1, 0.2), low_voltage = true, pqbrak = 1.0e-6, characteristic = 1)  form = power  mode = rms
inherited state: V16 = 0.0644, min V = 0.0644, angle spread = 27.9 deg, post-clearing algebraic residual |g|_inf = 6.284e+01

[Newton re-init from inherited state]
  k= 1  |g|=6.284e+01  |dy|=7.151e+01  V16=0.0644  minV=0.0644  maxV=0.914
  k= 2  |g|=9.391e+00  |dy|=1.476e+01  V16=0.2481  minV=0.2213  maxV=0.893
  k= 3  |g|=2.495e+00  |dy|=5.136e+01  V16=0.0578  minV=0.0206  maxV=0.894
  k= 4  |g|=1.103e+01  |dy|=2.777e+01  V16=0.0741  minV=0.0741  maxV=0.904
  k= 5  |g|=2.728e+00  |dy|=5.773e+01  V16=0.0301  minV=0.0301  maxV=0.901
  k= 6  |g|=3.247e+01  |dy|=4.944e+01  V16=0.0253  minV=0.0253  maxV=0.882
  k= 7  |g|=1.066e+01  |dy|=1.009e+02  V16=0.1159  minV=0.1057  maxV=0.879
  k= 8  |g|=3.828e+01  |dy|=5.310e+01  V16=0.2845  minV=0.2845  maxV=0.930
  k= 9  |g|=9.629e+00  |dy|=3.160e+01  V16=0.1325  minV=0.1325  maxV=0.907
  k=10  |g|=3.155e+00  |dy|=1.980e+01  V16=0.0627  minV=0.0627  maxV=0.898
  k=11  |g|=1.573e+00  |dy|=8.994e+00  V16=0.0252  minV=0.0252  maxV=0.897
  k=12  |g|=4.082e-01  |dy|=3.351e+00  V16=0.0100  minV=0.0100  maxV=0.902
  k=15  |g|=9.201e-03  |dy|=1.315e+00  V16=0.0116  minV=0.0116  maxV=0.904
  k=20  |g|=1.716e-02  |dy|=8.866e-01  V16=0.0117  minV=0.0117  maxV=0.903
  k=25  |g|=1.016e-02  |dy|=1.085e+00  V16=0.0114  minV=0.0114  maxV=0.904
  k=30  |g|=4.355e-02  |dy|=1.143e+00  V16=0.0111  minV=0.0111  maxV=0.904
  k=35  |g|=8.041e-03  |dy|=7.967e+00  V16=0.0115  minV=0.0115  maxV=0.904
  k=40  |g|=8.391e-03  |dy|=2.139e+00  V16=0.0115  minV=0.0115  maxV=0.904
  k=45  |g|=2.983e-02  |dy|=9.985e-01  V16=0.0112  minV=0.0112  maxV=0.904
  k=50  |g|=8.255e-03  |dy|=2.590e+00  V16=0.0115  minV=0.0115  maxV=0.904
  solve_newton!: converged=false iters=50 last residuals: 1.19e-02 9.07e-03 1.94e-02 8.25e-03 6.86e-02

[Direct integration, first step from inherited state]
  h=0.001: MaxIter (t_end=0)
    k= 1  |G|=6.536e+01  |dx|=7.153e+01  V16=0.0644  minV=0.0644  maxV=0.914
    k= 2  |G|=1.228e+01  |dx|=1.475e+01  V16=0.2480  minV=0.2211  maxV=0.893
    k= 3  |G|=2.815e+00  |dx|=5.077e+01  V16=0.0577  minV=0.0206  maxV=0.894
    k= 4  |G|=1.334e+01  |dx|=2.746e+01  V16=0.0729  minV=0.0729  maxV=0.904
    k= 5  |G|=3.549e+00  |dx|=5.710e+01  V16=0.0295  minV=0.0295  maxV=0.901
    k= 6  |G|=3.204e+01  |dx|=5.133e+01  V16=0.0247  minV=0.0247  maxV=0.882
    k= 7  |G|=1.410e+01  |dx|=2.233e+02  V16=0.1216  minV=0.1054  maxV=0.879
    k= 8  |G|=3.066e+02  |dx|=1.132e+02  V16=0.6139  minV=0.5490  maxV=1.091
    k=10  |G|=2.069e+01  |dx|=3.472e+01  V16=0.1364  minV=0.1364  maxV=0.906
    k=20  |G|=1.233e-02  |dx|=9.752e-01  V16=0.0116  minV=0.0116  maxV=0.903
    k=30  |G|=8.566e-03  |dx|=3.958e+00  V16=0.0115  minV=0.0115  maxV=0.904
    k=40  |G|=1.445e-02  |dx|=9.195e-01  V16=0.0116  minV=0.0116  maxV=0.903
    k=50  |G|=9.378e-03  |dx|=1.519e+00  V16=0.0116  minV=0.0116  maxV=0.904
  h=0.0001: MaxIter (t_end=0)
    k= 1  |G|=6.536e+01  |dx|=7.151e+01  V16=0.0644  minV=0.0644  maxV=0.914
    k= 2  |G|=1.227e+01  |dx|=1.476e+01  V16=0.2481  minV=0.2213  maxV=0.893
    k= 3  |G|=2.821e+00  |dx|=5.130e+01  V16=0.0578  minV=0.0206  maxV=0.894
    k= 4  |G|=1.361e+01  |dx|=2.774e+01  V16=0.0739  minV=0.0739  maxV=0.904
    k= 5  |G|=3.622e+00  |dx|=5.768e+01  V16=0.0300  minV=0.0300  maxV=0.901
    k= 6  |G|=3.265e+01  |dx|=4.962e+01  V16=0.0252  minV=0.0252  maxV=0.882
    k= 7  |G|=1.328e+01  |dx|=1.059e+02  V16=0.1164  minV=0.1056  maxV=0.879
    k= 8  |G|=7.305e+01  |dx|=5.551e+01  V16=0.2980  minV=0.2980  maxV=0.932
    k=10  |G|=5.931e+00  |dx|=2.048e+01  V16=0.0657  minV=0.0657  maxV=0.898
    k=20  |G|=2.536e-02  |dx|=9.520e-01  V16=0.0112  minV=0.0112  maxV=0.904
    k=30  |G|=1.897e-02  |dx|=8.967e-01  V16=0.0117  minV=0.0117  maxV=0.903
    k=40  |G|=8.213e-03  |dx|=3.665e+00  V16=0.0115  minV=0.0115  maxV=0.904
    k=50  |G|=1.438e-02  |dx|=8.945e-01  V16=0.0113  minV=0.0113  maxV=0.904
  h=1e-05: MaxIter (t_end=0)
    k= 1  |G|=6.536e+01  |dx|=7.151e+01  V16=0.0644  minV=0.0644  maxV=0.914
    k= 2  |G|=1.227e+01  |dx|=1.476e+01  V16=0.2481  minV=0.2213  maxV=0.893
    k= 3  |G|=2.822e+00  |dx|=5.135e+01  V16=0.0578  minV=0.0206  maxV=0.894
    k= 4  |G|=1.364e+01  |dx|=2.777e+01  V16=0.0740  minV=0.0740  maxV=0.904
    k= 5  |G|=3.629e+00  |dx|=5.772e+01  V16=0.0300  minV=0.0300  maxV=0.901
    k= 6  |G|=3.268e+01  |dx|=4.946e+01  V16=0.0253  minV=0.0253  maxV=0.882
    k= 7  |G|=1.321e+01  |dx|=1.014e+02  V16=0.1160  minV=0.1057  maxV=0.879
    k= 8  |G|=6.726e+01  |dx|=5.332e+01  V16=0.2858  minV=0.2858  maxV=0.930
    k=10  |G|=5.548e+00  |dx|=1.987e+01  V16=0.0629  minV=0.0629  maxV=0.898
    k=20  |G|=2.298e-02  |dx|=9.276e-01  V16=0.0117  minV=0.0117  maxV=0.903
    k=30  |G|=1.696e-01  |dx|=2.089e+00  V16=0.0123  minV=0.0123  maxV=0.902
    k=40  |G|=1.089e-01  |dx|=1.693e+00  V16=0.0108  minV=0.0108  maxV=0.905
    k=50  |G|=3.310e-02  |dx|=1.032e+00  V16=0.0118  minV=0.0118  maxV=0.903

[Homotopy re-init (clearing parameter 0 -> 1)]
  converged=true total Newton iterations=234 lambda_failed=nothing
  root: V16 = 1.0219, min V = 0.9831, KCL = 2.66e-15, |g|_inf = 2.66e-15
  flat start Newton: converged=true iters=5, distance to homotopy root (alg states, inf) = 2.22e-15

[Integration from the homotopy root]
  h=0.01 T=2: Success, t_end=2.000
  max angle spread = 60.9 deg, min V over run = 0.864, max KCL = 5.6e-14, V16(end) = 1.046
